FoamFile
{
    version     2.0;
    format      ascii;
    class       dictionary;
    object      transportProperties;
}

transportModel  Newtonian;

nu              [0 2 -1 0 0 0 0] 1.727e-05;

beta            [0 0 0 -1 0 0 0] 3.333e-03;

TRef            [0 0 0 1 0 0 0] 300;

Pr              [0 0 0 0 0 0 0] 0.71;

Prt             [0 0 0 0 0 0 0] 0.85;
