FoamFile
{
    version     2.0;
    format      ascii;
    class       dictionary;
    location    "constant/chip";
    object      thermophysicalProperties;
}

thermoType
{
    type            heSolidThermo;
    mixture         pureMixture;
    transport       constIso;
    thermo          hConst;
    equationOfState rhoConst;
    specie          specie;
    energy          sensibleEnthalpy;
}

mixture
{
    specie
    {
        molWeight   28;
    }
    transport
    {
        kappa       148;
    }
    thermodynamics
    {
        Hf          0;
        Cp          700;
    }
    equationOfState
    {
        rho         2330;
    }
}
